SecondaryTestCircuit_modified/SecondaryTestCircuit_VLN_Node.Txt

LINE-GROUND and LINE-LINE VOLTAGES BY BUS & NODE

Bus           Node    VLN (kV)   Angle      pu     Base kV    Node-Node   VLL (kV)  Angle      pu

BUSSOURCE ... 1       26.529 /_   -0.1    0.9989    46.000        1-2     45.956 /_   29.9   0.99905
   -          2       26.537 /_ -120.1   0.99919    46.000        2-3     45.963 /_  -90.1    0.9992
   -          3       26.533 /_  119.9   0.99907    46.000        3-1      45.95 /_  149.9   0.99891
MDV_SUB_1_HSB 1       26.529 /_   -0.1    0.9989    46.000        1-2     45.956 /_   29.9   0.99905
   -          2       26.537 /_ -120.1   0.99919    46.000        2-3     45.963 /_  -90.1    0.9992
   -          3       26.533 /_  119.9   0.99907    46.000        3-1      45.95 /_  149.9   0.99891
FEEDERHEADBUS 1         7.18 /_  -30.4   0.99729    12.470        1-2     12.435 /_   -0.3   0.99716
   -          2       7.1828 /_ -150.3   0.99768    12.470        2-3     12.444 /_ -120.3   0.99795
   -          3       7.1834 /_   89.6   0.99776    12.470        3-1      12.44 /_  119.6   0.99761
BUSPRIM1 .... 1         7.18 /_  -30.4   0.99729    12.470        1-2     12.435 /_   -0.3   0.99716
   -          2       7.1828 /_ -150.3   0.99768    12.470        2-3     12.444 /_ -120.3   0.99795
   -          3       7.1834 /_   89.6   0.99776    12.470        3-1      12.44 /_  119.6   0.99761
BUSPRIM2 .... 1       7.1797 /_  -30.4   0.99724    12.470        1-2     12.434 /_   -0.4   0.99709
   -          2       7.1823 /_ -150.3    0.9976    12.470        2-3     12.444 /_ -120.3   0.99788
   -          3       7.1828 /_   89.6   0.99768    12.470        3-1     12.439 /_  119.6   0.99754
BUSPRIM3 .... 1       7.1794 /_  -30.4    0.9972    12.470        1-2     12.433 /_   -0.4   0.99702
   -          2       7.1819 /_ -150.3   0.99755    12.470        2-3     12.443 /_ -120.4   0.99783
   -          3       7.1821 /_   89.6   0.99757    12.470        3-1     12.438 /_  119.6   0.99746
BUSPRIM4 .... 1        7.179 /_  -30.4   0.99714    12.470        1-2     12.432 /_   -0.4   0.99696
   -          2       7.1816 /_ -150.3   0.99751    12.470        2-3     12.442 /_ -120.4   0.99778
   -          3       7.1815 /_   89.6   0.99749    12.470        3-1     12.438 /_  119.6    0.9974
BUSPRIM5 .... 1       7.1788 /_  -30.4   0.99711    12.470        1-2     12.431 /_   -0.4   0.99691
   -          2       7.1812 /_ -150.3   0.99744    12.470        2-3     12.442 /_ -120.4   0.99774
   -          3        7.181 /_   89.6   0.99743    12.470        3-1     12.437 /_  119.6   0.99734
BUSPRIM6 .... 1       7.1784 /_  -30.4   0.99706    12.470        1-2     12.431 /_   -0.4   0.99686
   -          2       7.1808 /_ -150.3    0.9974    12.470        2-3     12.441 /_ -120.4   0.99769
   -          3       7.1808 /_   89.6   0.99739    12.470        3-1     12.436 /_  119.6    0.9973
BUSPRIM7 .... 1       7.1778 /_  -30.4   0.99698    12.470        1-2      12.43 /_   -0.4    0.9968
   -          2       7.1805 /_ -150.3   0.99736    12.470        2-3     12.441 /_ -120.4   0.99764
   -          3       7.1807 /_   89.6   0.99738    12.470        3-1     12.436 /_  119.6   0.99728
BUSPRIM8 .... 1       7.1775 /_  -30.4   0.99693    12.470        1-2      12.43 /_   -0.4   0.99677
   -          2       7.1801 /_ -150.3    0.9973    12.470        2-3      12.44 /_ -120.4   0.99759
   -          3       7.1808 /_   89.6   0.99739    12.470        3-1     12.436 /_  119.6   0.99726
BUSPRIM9 .... 1       7.1772 /_  -30.4   0.99689    12.470        1-2     12.429 /_   -0.4   0.99674
   -          2       7.1799 /_ -150.3   0.99727    12.470        2-3      12.44 /_ -120.4   0.99756
   -          3       7.1806 /_   89.6   0.99737    12.470        3-1     12.436 /_  119.6   0.99723
BUSPRIM10 ... 1       7.1767 /_  -30.4   0.99683    12.470        1-2     12.429 /_   -0.4   0.99671
   -          2       7.1798 /_ -150.4   0.99726    12.470        2-3     12.439 /_ -120.4   0.99754
   -          3       7.1808 /_   89.6   0.99739    12.470        3-1     12.435 /_  119.6   0.99723
BUSPRIM11 ... 1       7.1763 /_  -30.4   0.99677    12.470        1-2     12.429 /_   -0.4   0.99668
   -          2         7.18 /_ -150.4   0.99729    12.470        2-3     12.439 /_ -120.4   0.99753
   -          3       7.1807 /_   89.6   0.99738    12.470        3-1     12.435 /_  119.6   0.99723
BUSPRIM12 ... 1        7.176 /_  -30.4   0.99672    12.470        1-2     12.428 /_   -0.4   0.99666
   -          2       7.1803 /_ -150.4   0.99732    12.470        2-3     12.439 /_ -120.4   0.99753
   -          3       7.1806 /_   89.6   0.99737    12.470        3-1     12.435 /_  119.6   0.99722
BUSTRAFO1LV . 1      0.23652 /_  -30.8    0.9855     0.416
BUSSEC1_1 ... 1      0.23451 /_  -30.7   0.97713     0.416
BUSSEC1_2 ... 1       0.2341 /_  -30.7   0.97541     0.416
BUSSEC1_3 ... 1      0.23382 /_  -30.7   0.97426     0.416
BUSSEC1_4 ... 1      0.23409 /_  -30.7   0.97536     0.416
BUSSEC1_5 ... 1       0.2345 /_  -30.7   0.97707     0.416
BUSTRAFO2LV . 2      0.23646 /_ -150.9   0.98526     0.416
BUSSEC2_1 ... 2      0.22805 /_ -151.0    0.9502     0.416
BUSTRAFO3LV . 3      0.23666 /_   89.1    0.9861     0.416
BUSSEC3_1 ... 3      0.23308 /_   89.2   0.97119     0.416
BUSSEC3_2 ... 3      0.23021 /_   89.2   0.95921     0.416
BUSSEC3_3 ... 3      0.22806 /_   89.2   0.95026     0.416
BUSSEC3_4 ... 3      0.22665 /_   89.2   0.94437     0.416
BUSSEC3_5 ... 3      0.22595 /_   89.1   0.94145     0.416
BUSTRAFO4LV . 1      0.23638 /_  -30.9   0.98492     0.416
BUSSEC4_0 ... 1       0.2253 /_  -30.7   0.93873     0.416
BUSSEC4_1 ... 1      0.22473 /_  -30.6   0.93638     0.416
BUSSEC4_2 ... 1      0.22474 /_  -30.6    0.9364     0.416
BUSSEC4_3 ... 1      0.22475 /_  -30.7   0.93648     0.416
BUSSEC4_4 ... 1       0.2245 /_  -30.6   0.93542     0.416
BUSSEC4_5 ... 1      0.22475 /_  -30.7   0.93645     0.416
BUSTRAFO5LV . 3      0.23631 /_   89.1   0.98463     0.416
BUSSEC5_0 ... 3      0.22855 /_   89.2   0.95229     0.416
BUSSEC5_1 ... 3      0.22754 /_   89.1   0.94809     0.416
BUSSEC5_2 ... 3      0.22749 /_   89.2   0.94787     0.416
BUSSEC5_3 ... 3      0.23349 /_   89.1   0.97287     0.416
BUSSEC5_4 ... 3      0.23346 /_   89.2   0.97275     0.416
BUSTRAFO6LV . 3      0.23624 /_   89.1   0.98432     0.416
BUSSEC6_01 .. 3      0.22929 /_   89.2   0.95538     0.416
BUSSEC6_02 .. 3      0.22954 /_   89.0   0.95642     0.416
BUSSEC6_1 ... 3      0.22818 /_   89.2   0.95073     0.416
BUSSEC6_2 ... 3      0.22815 /_   89.3   0.95062     0.416
BUSSEC6_3 ... 3      0.22845 /_   89.0   0.95188     0.416
BUSSEC6_4 ... 3      0.22845 /_   89.0   0.95189     0.416
BUSTRAFO7LV . 1      0.23622 /_  -31.0   0.98426     0.416
BUSSEC7_01 .. 1      0.22943 /_  -31.0   0.95596     0.416
BUSSEC7_02 .. 1      0.22774 /_  -31.0   0.94893     0.416
BUSSEC7_1 ... 1      0.22839 /_  -31.0   0.95163     0.416
BUSSEC7_2 ... 1      0.22842 /_  -31.0   0.95175     0.416
BUSSEC7_3 ... 1      0.22672 /_  -31.0   0.94468     0.416
BUSSEC7_4 ... 1      0.22674 /_  -31.0   0.94473     0.416
BUSTRAFO8LV . 2      0.23582 /_ -150.8   0.98259     0.416
BUSSEC8_01 .. 2      0.23161 /_ -150.7   0.96505     0.416
BUSSEC8_02 .. 2      0.22951 /_ -150.6    0.9563     0.416
BUSSEC8_1 ... 2      0.23091 /_ -150.6   0.96211     0.416
BUSSEC8_2 ... 2      0.22844 /_ -150.5   0.95185     0.416
BUSSEC8_3 ... 2      0.22849 /_ -150.6   0.95202     0.416
BUSSEC8_4 ... 2      0.22845 /_ -150.5   0.95189     0.416
BUSTRAFO9LV . 3      0.23587 /_   89.1   0.98279     0.416
BUSSEC9_0 ... 3      0.23061 /_   89.3   0.96088     0.416
BUSSEC9_1 ... 3      0.22853 /_   89.3   0.95222     0.416
BUSSEC9_2 ... 3      0.22848 /_   89.4   0.95201     0.416
BUSTRAFO10LV  2      0.23587 /_ -150.8   0.98278     0.416
BUSSEC10_0 .. 2      0.22976 /_ -150.7   0.95735     0.416
BUSSEC10_1 .. 2      0.23257 /_ -150.7   0.96905     0.416
BUSSEC10_2 .. 2      0.22802 /_ -150.6   0.95009     0.416
BUSTRAFO11LV  2      0.23822 /_ -150.5    0.9926     0.416
BUSSEC11_1 .. 2      0.23476 /_ -150.4   0.97816     0.416
BUSSEC11_2 .. 2      0.23341 /_ -150.2   0.97253     0.416
XFMRLV ...... 1      0.23444 /_  -31.1   0.97683     0.416
BUSLV1 ...... 1       0.2293 /_  -31.0   0.95541     0.416
BUSLV2 ...... 1      0.22605 /_  -31.1   0.94186     0.416
BUSLV3 ...... 1      0.22953 /_  -31.2   0.95638     0.416
BUSLV4 ...... 1      0.22742 /_  -31.2    0.9476     0.416
BUSLV5 ...... 1      0.22818 /_  -31.2   0.95073     0.416
BUSLOAD1 .... 1      0.22597 /_  -31.1   0.94154     0.416
BUSLOAD2 .... 1      0.22596 /_  -31.1    0.9415     0.416
BUSLOAD3 .... 1      0.22914 /_  -31.0   0.95474     0.416
BUSLOAD4 .... 1      0.22857 /_  -31.0   0.95237     0.416
BUSLOAD5 .... 1      0.22554 /_  -31.2   0.93976     0.416
BUSLOAD6 .... 1      0.22667 /_  -31.2   0.94445     0.416
BUSLOAD7 .... 1       0.2279 /_  -31.2   0.94958     0.416
BUSLOAD8 .... 1      0.22803 /_  -31.2   0.95011     0.416
